PV_Scenarios/PV_combined/scenario_4_combined/PV_combined20per.txt
New PVSystem.PV_1 phases=1 bus1=G2000SK5500_N274137_sec_4.2 kV=0.24 kVA=6.3671 irradiance=1 Pmpp=5.3059 %cutin=0.1 %cutout=0.1
New PVSystem.PV_2 phases=1 bus1=G2000SK7800_N274150_sec_4.2 kV=0.24 kVA=5.76 irradiance=1 Pmpp=4.8 %cutin=0.1 %cutout=0.1
New PVSystem.PV_3 phases=1 bus1=G2000UI5400_N283699_sec_5.3 kV=0.24 kVA=3.96 irradiance=1 Pmpp=3.3 %cutin=0.1 %cutout=0.1
New PVSystem.PV_4 phases=1 bus1=G2000UJ6500_N283747_sec_2.2 kV=0.24 kVA=5.7334 irradiance=1 Pmpp=4.7778 %cutin=0.1 %cutout=0.1
New PVSystem.PV_5 phases=1 bus1=G2000UJ6500_N283747_sec_6.2 kV=0.24 kVA=10.08 irradiance=1 Pmpp=8.4 %cutin=0.1 %cutout=0.1
New PVSystem.PV_6 phases=1 bus1=G2000WM6400_N283824_sec_5.3 kV=0.24 kVA=2.76 irradiance=1 Pmpp=2.3 %cutin=0.1 %cutout=0.1
New PVSystem.PV_7 phases=1 bus1=G2000XL0800_N283812_sec_1.1 kV=0.24 kVA=3.24 irradiance=1 Pmpp=2.7 %cutin=0.1 %cutout=0.1
New PVSystem.PV_8 phases=1 bus1=G2000YM2700_N283830_sec_3.1 kV=0.24 kVA=3.6 irradiance=1 Pmpp=3 %cutin=0.1 %cutout=0.1
New PVSystem.PV_9 phases=1 bus1=G2001QJ8800_N274458_sec_2.2 kV=0.24 kVA=10.2 irradiance=1 Pmpp=8.5 %cutin=0.1 %cutout=0.1
New PVSystem.PV_10 phases=1 bus1=G2001RB7800_N274248_sec_2.3 kV=0.24 kVA=4.32 irradiance=1 Pmpp=3.6 %cutin=0.1 %cutout=0.1
New PVSystem.PV_11 phases=1 bus1=G2001TC6700_N274291_sec_5.3 kV=0.24 kVA=4.92 irradiance=1 Pmpp=4.1 %cutin=0.1 %cutout=0.1
New PVSystem.PV_12 phases=1 bus1=G2001TC6700_N274291_sec_6.3 kV=0.24 kVA=6.6 irradiance=1 Pmpp=5.5 %cutin=0.1 %cutout=0.1
New PVSystem.PV_13 phases=1 bus1=G2001TI5600_N284162_sec_4.2 kV=0.24 kVA=4.92 irradiance=1 Pmpp=4.1 %cutin=0.1 %cutout=0.1
New PVSystem.PV_14 phases=1 bus1=G2001UB4400_N283904_sec_8.3 kV=0.24 kVA=3 irradiance=1 Pmpp=2.5 %cutin=0.1 %cutout=0.1
New PVSystem.PV_15 phases=1 bus1=G2001UD7700_N284028_sec_2.3 kV=0.24 kVA=6.72 irradiance=1 Pmpp=5.6 %cutin=0.1 %cutout=0.1
New PVSystem.PV_16 phases=1 bus1=G2001UD7700_N284028_sec_7.3 kV=0.24 kVA=4.32 irradiance=1 Pmpp=3.6 %cutin=0.1 %cutout=0.1
New PVSystem.PV_17 phases=1 bus1=G2001UJ5100_N284204_sec_3.2 kV=0.24 kVA=10.32 irradiance=1 Pmpp=8.6 %cutin=0.1 %cutout=0.1
New PVSystem.PV_18 phases=1 bus1=G2001VB5300_N283949_sec_3.3 kV=0.24 kVA=5.88 irradiance=1 Pmpp=4.9 %cutin=0.1 %cutout=0.1
New PVSystem.PV_19 phases=1 bus1=G2001WD4700_N284012_sec_2.3 kV=0.24 kVA=3.84 irradiance=1 Pmpp=3.2 %cutin=0.1 %cutout=0.1
New PVSystem.PV_20 phases=1 bus1=G2001WE0200_N284057_sec_8.3 kV=0.24 kVA=2.8089 irradiance=1 Pmpp=2.3407 %cutin=0.1 %cutout=0.1
New PVSystem.PV_21 phases=1 bus1=G2001WG1100_N284110_sec_2.3 kV=0.24 kVA=2.76 irradiance=1 Pmpp=2.3 %cutin=0.1 %cutout=0.1
New PVSystem.PV_22 phases=1 bus1=G2001XE7600_N284065_sec_6.1 kV=0.24 kVA=9.24 irradiance=1 Pmpp=7.7 %cutin=0.1 %cutout=0.1
New PVSystem.PV_23 phases=1 bus1=G2001XF2300_N284087_sec_1.1 kV=0.24 kVA=7.68 irradiance=1 Pmpp=6.4 %cutin=0.1 %cutout=0.1
New PVSystem.PV_24 phases=1 bus1=G2002AD4400_N284341_sec_2.1 kV=0.24 kVA=7.4677 irradiance=1 Pmpp=6.2231 %cutin=0.1 %cutout=0.1
New PVSystem.PV_25 phases=1 bus1=G2100AE4800_N283558_sec_7.3 kV=0.24 kVA=3.24 irradiance=1 Pmpp=2.7 %cutin=0.1 %cutout=0.1
New PVSystem.PV_26 phases=1 bus1=G2100AH6800_N283651_sec_4.3 kV=0.24 kVA=4.92 irradiance=1 Pmpp=4.1 %cutin=0.1 %cutout=0.1
New PVSystem.PV_27 phases=1 bus1=G2100AH8200_N283618_sec_1.3 kV=0.24 kVA=5.28 irradiance=1 Pmpp=4.4 %cutin=0.1 %cutout=0.1
New PVSystem.PV_28 phases=1 bus1=G2100AH8200_N283618_sec_6.3 kV=0.24 kVA=5.64 irradiance=1 Pmpp=4.7 %cutin=0.1 %cutout=0.1
New PVSystem.PV_29 phases=1 bus1=G2100AM8100_N283813_sec_1.1 kV=0.24 kVA=4.32 irradiance=1 Pmpp=3.6 %cutin=0.1 %cutout=0.1
New PVSystem.PV_30 phases=1 bus1=G2100BJ1200_N283713_sec_1.1 kV=0.24 kVA=5.88 irradiance=1 Pmpp=4.9 %cutin=0.1 %cutout=0.1
New PVSystem.PV_31 phases=1 bus1=G2100CN5000_N283837_sec_1.3 kV=0.24 kVA=5.16 irradiance=1 Pmpp=4.3 %cutin=0.1 %cutout=0.1
New PVSystem.PV_32 phases=1 bus1=G2100DG3700_N283614_sec_21.3 kV=0.24 kVA=3.12 irradiance=1 Pmpp=2.6 %cutin=0.1 %cutout=0.1
New PVSystem.PV_33 phases=1 bus1=G2100DN3000_N283838_sec_13.3 kV=0.24 kVA=1.32 irradiance=1 Pmpp=1.1 %cutin=0.1 %cutout=0.1
New PVSystem.PV_34 phases=1 bus1=G2100DN4800_N283861_sec_10.3 kV=0.24 kVA=0.72 irradiance=1 Pmpp=0.6 %cutin=0.1 %cutout=0.1
New PVSystem.PV_35 phases=1 bus1=G2100DN4800_N283861_sec_51.3 kV=0.24 kVA=0.84 irradiance=1 Pmpp=0.7 %cutin=0.1 %cutout=0.1
New PVSystem.PV_36 phases=1 bus1=G2100EG8500_N292275_sec_4.3 kV=0.24 kVA=4.08 irradiance=1 Pmpp=3.4 %cutin=0.1 %cutout=0.1
New PVSystem.PV_37 phases=1 bus1=G2100EN2200_N292457_sec_10.3 kV=0.24 kVA=6.72 irradiance=1 Pmpp=5.6 %cutin=0.1 %cutout=0.1
New PVSystem.PV_38 phases=1 bus1=G2100EN7100_N292449_sec_3.3 kV=0.24 kVA=2.52 irradiance=1 Pmpp=2.1 %cutin=0.1 %cutout=0.1
New PVSystem.PV_39 phases=1 bus1=G2100EN8600_N292479_sec_12.3 kV=0.24 kVA=4.44 irradiance=1 Pmpp=3.7 %cutin=0.1 %cutout=0.1
New PVSystem.PV_40 phases=3 conn = delta bus1=G2100FJ3800_N292380_sec_3.1.2.3 kV=0.48 kVA=9.84 irradiance=1 Pmpp=8.2 %cutin=0.1 %cutout=0.1
New PVSystem.PV_41 phases=1 bus1=G2100FK5800_N292373_sec_1.2 kV=0.24 kVA=13.2 irradiance=1 Pmpp=11 %cutin=0.1 %cutout=0.1
New PVSystem.PV_42 phases=1 bus1=G2100FL3500_N292410_sec_3.2 kV=0.24 kVA=9.7925 irradiance=1 Pmpp=8.1604 %cutin=0.1 %cutout=0.1
New PVSystem.PV_43 phases=3 conn = delta bus1=G2100FO5600_N292520_sec_1.1.2.3 kV=0.48 kVA=10.32 irradiance=1 Pmpp=8.6 %cutin=0.1 %cutout=0.1
New PVSystem.PV_44 phases=3 conn = delta bus1=G2100GF5300_N292267_sec_1.1.2.3 kV=0.48 kVA=60.72 irradiance=1 Pmpp=50.6 %cutin=0.1 %cutout=0.1
New PVSystem.PV_45 phases=1 bus1=G2100GM9700_N292423_sec_21.3 kV=0.24 kVA=2.52 irradiance=1 Pmpp=2.1 %cutin=0.1 %cutout=0.1
New PVSystem.PV_46 phases=1 bus1=G2100GN0400_N292471_sec_8.1 kV=0.24 kVA=3.24 irradiance=1 Pmpp=2.7 %cutin=0.1 %cutout=0.1
New PVSystem.PV_47 phases=1 bus1=G2100HN5600_N292453_sec_13.3 kV=0.24 kVA=2.3249 irradiance=1 Pmpp=1.9374 %cutin=0.1 %cutout=0.1
New PVSystem.PV_48 phases=1 bus1=G2100HN5600_N292453_sec_24.3 kV=0.24 kVA=4.2 irradiance=1 Pmpp=3.5 %cutin=0.1 %cutout=0.1
New PVSystem.PV_49 phases=1 bus1=G2100HN5600_N292453_sec_61.3 kV=0.24 kVA=2.76 irradiance=1 Pmpp=2.3 %cutin=0.1 %cutout=0.1
New PVSystem.PV_50 phases=1 bus1=G2100IN2700_N292475_sec_22.3 kV=0.24 kVA=2.52 irradiance=1 Pmpp=2.1 %cutin=0.1 %cutout=0.1
New PVSystem.PV_51 phases=1 bus1=G2100NL6900_N300504_sec_6.1 kV=0.24 kVA=4.08 irradiance=1 Pmpp=3.4 %cutin=0.1 %cutout=0.1
New PVSystem.PV_52 phases=1 bus1=G2100SO3700_N312462_sec_4.3 kV=0.24 kVA=2.88 irradiance=1 Pmpp=2.4 %cutin=0.1 %cutout=0.1
New PVSystem.PV_53 phases=1 bus1=G2100SP2100_N312536_sec_4.2 kV=0.24 kVA=3.24 irradiance=1 Pmpp=2.7 %cutin=0.1 %cutout=0.1
New PVSystem.PV_54 phases=1 bus1=G2101BA6700_N283900_sec_1.1 kV=0.24 kVA=2.88 irradiance=1 Pmpp=2.4 %cutin=0.1 %cutout=0.1
New PVSystem.PV_55 phases=1 bus1=G2101BB3500_N283890_sec_5.1 kV=0.24 kVA=6.72 irradiance=1 Pmpp=5.6 %cutin=0.1 %cutout=0.1
New PVSystem.PV_56 phases=1 bus1=G2101BD7000_N283957_sec_1.3 kV=0.24 kVA=3 irradiance=1 Pmpp=2.5 %cutin=0.1 %cutout=0.1
New PVSystem.PV_57 phases=1 bus1=G2101BE0100_N284030_sec_2.3 kV=0.24 kVA=3.36 irradiance=1 Pmpp=2.8 %cutin=0.1 %cutout=0.1
New PVSystem.PV_58 phases=1 bus1=G2101CB7700_N283923_sec_8.1 kV=0.24 kVA=4.2 irradiance=1 Pmpp=3.5 %cutin=0.1 %cutout=0.1
New PVSystem.PV_59 phases=1 bus1=G2101DC0100_N283946_sec_9.1 kV=0.24 kVA=5.88 irradiance=1 Pmpp=4.9 %cutin=0.1 %cutout=0.1
New PVSystem.PV_60 phases=1 bus1=G2101EG5500_N292730_sec_2.2 kV=0.24 kVA=7.56 irradiance=1 Pmpp=6.3 %cutin=0.1 %cutout=0.1
New PVSystem.PV_61 phases=1 bus1=G2101EG7000_N292703_sec_1.2 kV=0.24 kVA=10.4938 irradiance=1 Pmpp=8.7448 %cutin=0.1 %cutout=0.1
New PVSystem.PV_62 phases=1 bus1=G2101FC8400_N292612_sec_19.2 kV=0.24 kVA=4.56 irradiance=1 Pmpp=3.8 %cutin=0.1 %cutout=0.1
New PVSystem.PV_63 phases=1 bus1=G2101FC9500_N292618_sec_16.1 kV=0.24 kVA=3 irradiance=1 Pmpp=2.5 %cutin=0.1 %cutout=0.1
New PVSystem.PV_64 phases=1 bus1=G2101FC9500_N292618_sec_20.1 kV=0.24 kVA=3.6 irradiance=1 Pmpp=3 %cutin=0.1 %cutout=0.1
New PVSystem.PV_65 phases=1 bus1=G2101GC3200_N292623_sec_13.1 kV=0.24 kVA=3.6 irradiance=1 Pmpp=3 %cutin=0.1 %cutout=0.1
New PVSystem.PV_66 phases=1 bus1=G2101GC9700_N292633_sec_18.1 kV=0.24 kVA=4.44 irradiance=1 Pmpp=3.7 %cutin=0.1 %cutout=0.1
New PVSystem.PV_67 phases=1 bus1=G2101GH4500_N292745_sec_1.3 kV=0.24 kVA=1.68 irradiance=1 Pmpp=1.4 %cutin=0.1 %cutout=0.1
New PVSystem.PV_68 phases=3 conn = delta bus1=G2101HA1300_N292535_sec_1.1.2.3 kV=0.48 kVA=0.84 irradiance=1 Pmpp=0.7 %cutin=0.1 %cutout=0.1
New PVSystem.PV_69 phases=1 bus1=G2101KA0900_N300672_sec_11.1 kV=0.24 kVA=2.64 irradiance=1 Pmpp=2.2 %cutin=0.1 %cutout=0.1
New PVSystem.PV_70 phases=1 bus1=G2101KA3900_N300679_sec_11.1 kV=0.24 kVA=4.32 irradiance=1 Pmpp=3.6 %cutin=0.1 %cutout=0.1
New PVSystem.PV_71 phases=1 bus1=G2101OA2300_N300690_sec_1.3 kV=0.24 kVA=3.24 irradiance=1 Pmpp=2.7 %cutin=0.1 %cutout=0.1
New PVSystem.PV_72 phases=1 bus1=G2101OA5600_N300661_sec_2.1 kV=0.24 kVA=4.44 irradiance=1 Pmpp=3.7 %cutin=0.1 %cutout=0.1
New PVSystem.PV_73 phases=1 bus1=G2101PB7100_N300674_sec_6.1 kV=0.24 kVA=3.24 irradiance=1 Pmpp=2.7 %cutin=0.1 %cutout=0.1
New PVSystem.PV_74 phases=1 bus1=G2101PB7100_N300674_sec_7.1 kV=0.24 kVA=6.96 irradiance=1 Pmpp=5.8 %cutin=0.1 %cutout=0.1
New PVSystem.PV_75 phases=1 bus1=G2101QA0800_N300664_sec_3.1 kV=0.24 kVA=5.9668 irradiance=1 Pmpp=4.9724 %cutin=0.1 %cutout=0.1
New PVSystem.PV_76 phases=1 bus1=G2101SB1800_N312602_sec_2.1 kV=0.24 kVA=4.2 irradiance=1 Pmpp=3.5 %cutin=0.1 %cutout=0.1
New PVSystem.PV_77 phases=1 bus1=G2102AG6500_N284433_sec_3.1 kV=0.24 kVA=15 irradiance=1 Pmpp=12.5 %cutin=0.1 %cutout=0.1
New PVSystem.PV_78 phases=1 bus1=G2102FF3700_N284394_sec_3.1 kV=0.24 kVA=5.88 irradiance=1 Pmpp=4.9 %cutin=0.1 %cutout=0.1
New PVSystem.PV_79 phases=1 bus1=G2000WK0800_N283765_sec_1.2 kV=0.24 kVA=10.806 irradiance=1 Pmpp=9.005 %cutin=0.1 %cutout=0.1
New PVSystem.PV_80 phases=1 bus1=G2000WO8800_N283892_sec_2.3 kV=0.24 kVA=4.32 irradiance=1 Pmpp=3.6 %cutin=0.1 %cutout=0.1
New PVSystem.PV_81 phases=1 bus1=G2001SH3700_N274411_sec_8.1 kV=0.24 kVA=5.9574 irradiance=1 Pmpp=4.9645 %cutin=0.1 %cutout=0.1
New PVSystem.PV_82 phases=1 bus1=G2001SJ5400_N274470_sec_5.1 kV=0.24 kVA=9.36 irradiance=1 Pmpp=7.8 %cutin=0.1 %cutout=0.1
New PVSystem.PV_83 phases=1 bus1=G2001TD3700_N274305_sec_5.3 kV=0.24 kVA=5.52 irradiance=1 Pmpp=4.6 %cutin=0.1 %cutout=0.1
New PVSystem.PV_84 phases=1 bus1=G2001UD7700_N284028_sec_4.3 kV=0.24 kVA=3.12 irradiance=1 Pmpp=2.6 %cutin=0.1 %cutout=0.1
New PVSystem.PV_85 phases=1 bus1=G2001UJ6300_N284204_sec_2.2 kV=0.24 kVA=3.6911 irradiance=1 Pmpp=3.0759 %cutin=0.1 %cutout=0.1
New PVSystem.PV_86 phases=1 bus1=G2001VA3800_N283914_sec_7.3 kV=0.24 kVA=5.16 irradiance=1 Pmpp=4.3 %cutin=0.1 %cutout=0.1
New PVSystem.PV_87 phases=1 bus1=G2001VF4000_N284076_sec_2.3 kV=0.24 kVA=1.44 irradiance=1 Pmpp=1.2 %cutin=0.1 %cutout=0.1
New PVSystem.PV_88 phases=1 bus1=G2001VK3300_N284221_sec_1.2 kV=0.24 kVA=0.96 irradiance=1 Pmpp=0.8 %cutin=0.1 %cutout=0.1
New PVSystem.PV_89 phases=1 bus1=G2001WB8800_N283948_sec_1.3 kV=0.24 kVA=2.88 irradiance=1 Pmpp=2.4 %cutin=0.1 %cutout=0.1
New PVSystem.PV_90 phases=1 bus1=G2001XB6700_N283943_sec_1.3 kV=0.24 kVA=1.08 irradiance=1 Pmpp=0.9 %cutin=0.1 %cutout=0.1
New PVSystem.PV_91 phases=1 bus1=G2001XI4700_N284192_sec_2.3 kV=0.24 kVA=2.64 irradiance=1 Pmpp=2.2 %cutin=0.1 %cutout=0.1
New PVSystem.PV_92 phases=1 bus1=G2001XJ9600_N284217_sec_6.3 kV=0.24 kVA=5.76 irradiance=1 Pmpp=4.8 %cutin=0.1 %cutout=0.1
New PVSystem.PV_93 phases=1 bus1=G2100AH8200_N283618_sec_7.3 kV=0.24 kVA=3.24 irradiance=1 Pmpp=2.7 %cutin=0.1 %cutout=0.1
New PVSystem.PV_94 phases=1 bus1=G2100BH3900_N283665_sec_1.3 kV=0.24 kVA=2.76 irradiance=1 Pmpp=2.3 %cutin=0.1 %cutout=0.1
New PVSystem.PV_95 phases=1 bus1=G2100CH1800_N1385522_sec_3.3 kV=0.24 kVA=3.12 irradiance=1 Pmpp=2.6 %cutin=0.1 %cutout=0.1
New PVSystem.PV_96 phases=1 bus1=G2100CI4600_N283694_sec_5.2 kV=0.24 kVA=6.72 irradiance=1 Pmpp=5.6 %cutin=0.1 %cutout=0.1
New PVSystem.PV_97 phases=3 conn = delta bus1=G2100CI6400_N283690_sec_1.1.2.3 kV=0.48 kVA=0.48 irradiance=1 Pmpp=0.4 %cutin=0.1 %cutout=0.1
New PVSystem.PV_98 phases=1 bus1=G2100CJ3000_N283718_sec_3.2 kV=0.24 kVA=6.6 irradiance=1 Pmpp=5.5 %cutin=0.1 %cutout=0.1
New PVSystem.PV_99 phases=1 bus1=G2100CJ3400_N283737_sec_4.2 kV=0.24 kVA=5.04 irradiance=1 Pmpp=4.2 %cutin=0.1 %cutout=0.1
New PVSystem.PV_100 phases=1 bus1=G2100CN4900_N283858_sec_6.3 kV=0.24 kVA=1.8 irradiance=1 Pmpp=1.5 %cutin=0.1 %cutout=0.1
New PVSystem.PV_101 phases=1 bus1=G2100CN4900_N283858_sec_7.3 kV=0.24 kVA=2.16 irradiance=1 Pmpp=1.8 %cutin=0.1 %cutout=0.1
New PVSystem.PV_102 phases=1 bus1=G2100DL9800_N283744_sec_2.2 kV=0.24 kVA=6.36 irradiance=1 Pmpp=5.3 %cutin=0.1 %cutout=0.1
New PVSystem.PV_103 phases=1 bus1=G2100DN3000_N283838_sec_2.3 kV=0.24 kVA=3.12 irradiance=1 Pmpp=2.6 %cutin=0.1 %cutout=0.1
New PVSystem.PV_104 phases=1 bus1=G2100DN3000_N283838_sec_5.3 kV=0.24 kVA=1.56 irradiance=1 Pmpp=1.3 %cutin=0.1 %cutout=0.1
New PVSystem.PV_105 phases=1 bus1=G2100DN4800_N283861_sec_61.3 kV=0.24 kVA=0.6 irradiance=1 Pmpp=0.5 %cutin=0.1 %cutout=0.1
New PVSystem.PV_106 phases=1 bus1=G2100EN8600_N292479_sec_1.3 kV=0.24 kVA=1.32 irradiance=1 Pmpp=1.1 %cutin=0.1 %cutout=0.1
New PVSystem.PV_107 phases=1 bus1=G2100EN8600_N292479_sec_8.3 kV=0.24 kVA=2.4 irradiance=1 Pmpp=2 %cutin=0.1 %cutout=0.1
New PVSystem.PV_108 phases=3 conn = delta bus1=G2100FL1200_N292405_sec_1.1.2.3 kV=0.48 kVA=55.08 irradiance=1 Pmpp=45.9 %cutin=0.1 %cutout=0.1
New PVSystem.PV_109 phases=1 bus1=G2100FO1600_N292502_sec_16.3 kV=0.24 kVA=1.8 irradiance=1 Pmpp=1.5 %cutin=0.1 %cutout=0.1
New PVSystem.PV_110 phases=1 bus1=G2100GM9700_N292423_sec_15.3 kV=0.24 kVA=0.48 irradiance=1 Pmpp=0.4 %cutin=0.1 %cutout=0.1
New PVSystem.PV_111 phases=1 bus1=G2100HN5600_N292453_sec_71.3 kV=0.24 kVA=4.32 irradiance=1 Pmpp=3.6 %cutin=0.1 %cutout=0.1
New PVSystem.PV_112 phases=1 bus1=G2100IM6700_N292430_sec_34.3 kV=0.24 kVA=1.56 irradiance=1 Pmpp=1.3 %cutin=0.1 %cutout=0.1
New PVSystem.PV_113 phases=1 bus1=G2100IN7700_N292438_sec_2.3 kV=0.24 kVA=1.2 irradiance=1 Pmpp=1 %cutin=0.1 %cutout=0.1
New PVSystem.PV_114 phases=1 bus1=G2100IN7700_N292438_sec_9.3 kV=0.24 kVA=2.4 irradiance=1 Pmpp=2 %cutin=0.1 %cutout=0.1
New PVSystem.PV_115 phases=1 bus1=G2100OJ3600_N300452_sec_2.2 kV=0.24 kVA=0.72 irradiance=1 Pmpp=0.6 %cutin=0.1 %cutout=0.1
New PVSystem.PV_116 phases=1 bus1=G2100ON7400_N300547_sec_6.1 kV=0.24 kVA=2.16 irradiance=1 Pmpp=1.8 %cutin=0.1 %cutout=0.1
New PVSystem.PV_117 phases=1 bus1=G2100OO7600_N300586_sec_3.1 kV=0.24 kVA=5.16 irradiance=1 Pmpp=4.3 %cutin=0.1 %cutout=0.1
New PVSystem.PV_118 phases=1 bus1=G2100PO1400_N300580_sec_11.1 kV=0.24 kVA=4.44 irradiance=1 Pmpp=3.7 %cutin=0.1 %cutout=0.1
New PVSystem.PV_119 phases=1 bus1=G2100QM2700_N300529_sec_5.2 kV=0.24 kVA=6 irradiance=1 Pmpp=5 %cutin=0.1 %cutout=0.1
New PVSystem.PV_120 phases=1 bus1=G2100QN1500_N300555_sec_3.2 kV=0.24 kVA=5.28 irradiance=1 Pmpp=4.4 %cutin=0.1 %cutout=0.1
New PVSystem.PV_121 phases=1 bus1=G2100RM5200_N312343_sec_1.3 kV=0.24 kVA=2.88 irradiance=1 Pmpp=2.4 %cutin=0.1 %cutout=0.1
New PVSystem.PV_122 phases=1 bus1=G2100RM5200_N312343_sec_10.3 kV=0.24 kVA=3.24 irradiance=1 Pmpp=2.7 %cutin=0.1 %cutout=0.1
New PVSystem.PV_123 phases=1 bus1=G2101AC2700_N284001_sec_1.3 kV=0.24 kVA=3.96 irradiance=1 Pmpp=3.3 %cutin=0.1 %cutout=0.1
New PVSystem.PV_124 phases=1 bus1=G2101AC8800_N283998_sec_2.2 kV=0.24 kVA=11.3672 irradiance=1 Pmpp=9.4727 %cutin=0.1 %cutout=0.1
New PVSystem.PV_125 phases=1 bus1=G2101BC6900_N283995_sec_4.2 kV=0.24 kVA=11.04 irradiance=1 Pmpp=9.2 %cutin=0.1 %cutout=0.1
New PVSystem.PV_126 phases=1 bus1=G2101BG9000_N284109_sec_1.3 kV=0.24 kVA=6.1154 irradiance=1 Pmpp=5.0961 %cutin=0.1 %cutout=0.1
New PVSystem.PV_127 phases=1 bus1=G2101BH1300_N284164_sec_3.3 kV=0.24 kVA=3.72 irradiance=1 Pmpp=3.1 %cutin=0.1 %cutout=0.1
New PVSystem.PV_128 phases=1 bus1=G2101BL8500_N284244_sec_1.1 kV=0.24 kVA=11.1844 irradiance=1 Pmpp=9.3203 %cutin=0.1 %cutout=0.1
New PVSystem.PV_129 phases=1 bus1=G2101CA2900_N283939_sec_1.1 kV=0.24 kVA=4.9846 irradiance=1 Pmpp=4.1538 %cutin=0.1 %cutout=0.1
New PVSystem.PV_130 phases=1 bus1=G2101CC0600_N283951_sec_6.3 kV=0.24 kVA=5.88 irradiance=1 Pmpp=4.9 %cutin=0.1 %cutout=0.1
New PVSystem.PV_131 phases=1 bus1=G2101DO1900_N284309_sec_4.1 kV=0.24 kVA=8.9717 irradiance=1 Pmpp=7.4764 %cutin=0.1 %cutout=0.1
New PVSystem.PV_132 phases=1 bus1=G2101FG5400_N292715_sec_2.2 kV=0.24 kVA=2.4 irradiance=1 Pmpp=2 %cutin=0.1 %cutout=0.1
New PVSystem.PV_133 phases=1 bus1=G2101FK7100_N292792_sec_4.2 kV=0.24 kVA=10.68 irradiance=1 Pmpp=8.9 %cutin=0.1 %cutout=0.1
New PVSystem.PV_134 phases=1 bus1=G2101GB6700_N292603_sec_4.1 kV=0.24 kVA=4.08 irradiance=1 Pmpp=3.4 %cutin=0.1 %cutout=0.1
New PVSystem.PV_135 phases=1 bus1=G2101GC3400_N292625_sec_16.1 kV=0.24 kVA=2.4 irradiance=1 Pmpp=2 %cutin=0.1 %cutout=0.1
New PVSystem.PV_136 phases=1 bus1=G2101GC9700_N292633_sec_13.1 kV=0.24 kVA=3.12 irradiance=1 Pmpp=2.6 %cutin=0.1 %cutout=0.1
New PVSystem.PV_137 phases=1 bus1=G2101GC9700_N292633_sec_19.1 kV=0.24 kVA=3.12 irradiance=1 Pmpp=2.6 %cutin=0.1 %cutout=0.1
New PVSystem.PV_138 phases=1 bus1=G2101GD5100_N292637_sec_7.1 kV=0.24 kVA=2.64 irradiance=1 Pmpp=2.2 %cutin=0.1 %cutout=0.1
New PVSystem.PV_139 phases=1 bus1=G2101GJ7800_N292798_sec_3.2 kV=0.24 kVA=6.12 irradiance=1 Pmpp=5.1 %cutin=0.1 %cutout=0.1
New PVSystem.PV_140 phases=1 bus1=G2101GM7700_N292843_sec_2.2 kV=0.24 kVA=5.4 irradiance=1 Pmpp=4.5 %cutin=0.1 %cutout=0.1
New PVSystem.PV_141 phases=3 conn = delta bus1=G2101JA6700_N1321243_sec_8.1.2.3 kV=0.48 kVA=12 irradiance=1 Pmpp=10 %cutin=0.1 %cutout=0.1
New PVSystem.PV_142 phases=1 bus1=G2101JE7500_N300801_sec_4.1 kV=0.24 kVA=8.16 irradiance=1 Pmpp=6.8 %cutin=0.1 %cutout=0.1
New PVSystem.PV_143 phases=1 bus1=G2101KA2300_N300631_sec_15.1 kV=0.24 kVA=3.6 irradiance=1 Pmpp=3 %cutin=0.1 %cutout=0.1
New PVSystem.PV_144 phases=1 bus1=G2101PB5100_N300681_sec_1.1 kV=0.24 kVA=8.28 irradiance=1 Pmpp=6.9 %cutin=0.1 %cutout=0.1
New PVSystem.PV_145 phases=1 bus1=G2101QB4300_N300711_sec_6.3 kV=0.24 kVA=2.4211 irradiance=1 Pmpp=2.0176 %cutin=0.1 %cutout=0.1
New PVSystem.PV_146 phases=1 bus1=G2101RA0900_N300678_sec_2.1 kV=0.24 kVA=0 irradiance=1 Pmpp=0 %cutin=0.1 %cutout=0.1
New PVSystem.PV_147 phases=1 bus1=G2101RA8200_N312510_sec_9.3 kV=0.24 kVA=3.12 irradiance=1 Pmpp=2.6 %cutin=0.1 %cutout=0.1
New PVSystem.PV_148 phases=1 bus1=G2101RB6300_N312566_sec_7.1 kV=0.24 kVA=2.64 irradiance=1 Pmpp=2.2 %cutin=0.1 %cutout=0.1
New PVSystem.PV_149 phases=1 bus1=G2101RB6300_N312566_sec_8.1 kV=0.24 kVA=7.92 irradiance=1 Pmpp=6.6 %cutin=0.1 %cutout=0.1
New PVSystem.PV_150 phases=1 bus1=G2101SC5300_N312606_sec_3.1 kV=0.24 kVA=4.44 irradiance=1 Pmpp=3.7 %cutin=0.1 %cutout=0.1
New PVSystem.PV_151 phases=1 bus1=G2101TA3200_N312486_sec_1.2 kV=0.24 kVA=6.36 irradiance=1 Pmpp=5.3 %cutin=0.1 %cutout=0.1
New PVSystem.PV_152 phases=1 bus1=G2101UB2800_N312558_sec_2.2 kV=0.24 kVA=10.0369 irradiance=1 Pmpp=8.3641 %cutin=0.1 %cutout=0.1
New PVSystem.PV_153 phases=1 bus1=G2102AA5600_N284324_sec_1.1 kV=0.24 kVA=6.72 irradiance=1 Pmpp=5.6 %cutin=0.1 %cutout=0.1
New PVSystem.PV_154 phases=1 bus1=G2102CF4600_N284377_sec_3.1 kV=0.24 kVA=7.3117 irradiance=1 Pmpp=6.0931 %cutin=0.1 %cutout=0.1
New PVSystem.PV_155 phases=1 bus1=G2102FF3700_N284394_sec_2.1 kV=0.24 kVA=6.9962 irradiance=1 Pmpp=5.8302 %cutin=0.1 %cutout=0.1
New PVSystem.PV_156 phases=1 bus1=G2000SK5500_N274137_sec_7.2 kV=0.24 kVA=8.4 irradiance=1 Pmpp=7 %cutin=0.1 %cutout=0.1
New PVSystem.PV_157 phases=1 bus1=G2000UK1100_N283753_sec_1.3 kV=0.24 kVA=3.12 irradiance=1 Pmpp=2.6 %cutin=0.1 %cutout=0.1
New PVSystem.PV_158 phases=1 bus1=G2000VH9500_N283675_sec_5.2 kV=0.24 kVA=4.8394 irradiance=1 Pmpp=4.0329 %cutin=0.1 %cutout=0.1
New PVSystem.PV_159 phases=1 bus1=G2000VL8700_N283799_sec_2.3 kV=0.24 kVA=4.08 irradiance=1 Pmpp=3.4 %cutin=0.1 %cutout=0.1
New PVSystem.PV_160 phases=1 bus1=G2000XH4800_N283608_sec_5.2 kV=0.24 kVA=7.56 irradiance=1 Pmpp=6.3 %cutin=0.1 %cutout=0.1
New PVSystem.PV_161 phases=1 bus1=G2000XJ7800_N283732_sec_1.2 kV=0.24 kVA=8.04 irradiance=1 Pmpp=6.7 %cutin=0.1 %cutout=0.1
New PVSystem.PV_162 phases=1 bus1=G2000XN9500_N283851_sec_3.3 kV=0.24 kVA=2.4 irradiance=1 Pmpp=2 %cutin=0.1 %cutout=0.1
New PVSystem.PV_163 phases=1 bus1=G2000YM2700_N283830_sec_1.1 kV=0.24 kVA=4.2 irradiance=1 Pmpp=3.5 %cutin=0.1 %cutout=0.1
New PVSystem.PV_164 phases=1 bus1=G2001RI6300_N1347089_sec_5.1 kV=0.24 kVA=5.64 irradiance=1 Pmpp=4.7 %cutin=0.1 %cutout=0.1
New PVSystem.PV_165 phases=1 bus1=G2001RI6300_N1347089_sec_7.1 kV=0.24 kVA=5.88 irradiance=1 Pmpp=4.9 %cutin=0.1 %cutout=0.1
New PVSystem.PV_166 phases=1 bus1=G2001RL0800_N274521_sec_4.2 kV=0.24 kVA=8.4581 irradiance=1 Pmpp=7.0484 %cutin=0.1 %cutout=0.1
New PVSystem.PV_167 phases=1 bus1=G2001TE3800_N274352_sec_4.3 kV=0.24 kVA=5.04 irradiance=1 Pmpp=4.2 %cutin=0.1 %cutout=0.1
New PVSystem.PV_168 phases=1 bus1=G2001VA3800_N283914_sec_2.3 kV=0.24 kVA=3.9419 irradiance=1 Pmpp=3.2849 %cutin=0.1 %cutout=0.1
New PVSystem.PV_169 phases=1 bus1=G2001WB3100_N283924_sec_6.3 kV=0.24 kVA=2.3349 irradiance=1 Pmpp=1.9458 %cutin=0.1 %cutout=0.1
New PVSystem.PV_170 phases=1 bus1=G2001WB9000_N283924_sec_5.3 kV=0.24 kVA=3.12 irradiance=1 Pmpp=2.6 %cutin=0.1 %cutout=0.1
New PVSystem.PV_171 phases=1 bus1=G2001WC3900_N284043_sec_3.3 kV=0.24 kVA=3.36 irradiance=1 Pmpp=2.8 %cutin=0.1 %cutout=0.1
New PVSystem.PV_172 phases=1 bus1=G2001WG8300_N284116_sec_1.3 kV=0.24 kVA=5.4 irradiance=1 Pmpp=4.5 %cutin=0.1 %cutout=0.1
New PVSystem.PV_173 phases=1 bus1=G2001XE9500_N284003_sec_1.3 kV=0.24 kVA=3.24 irradiance=1 Pmpp=2.7 %cutin=0.1 %cutout=0.1
New PVSystem.PV_174 phases=1 bus1=G2001XF9200_N284087_sec_2.3 kV=0.24 kVA=0.24 irradiance=1 Pmpp=0.2 %cutin=0.1 %cutout=0.1
New PVSystem.PV_175 phases=1 bus1=G2001XJ9600_N284217_sec_2.3 kV=0.24 kVA=5.88 irradiance=1 Pmpp=4.9 %cutin=0.1 %cutout=0.1
New PVSystem.PV_176 phases=1 bus1=G2002AF2300_N284383_sec_3.1 kV=0.24 kVA=11.28 irradiance=1 Pmpp=9.4 %cutin=0.1 %cutout=0.1
New PVSystem.PV_177 phases=1 bus1=G2100AI4900_N283724_sec_3.2 kV=0.24 kVA=6.36 irradiance=1 Pmpp=5.3 %cutin=0.1 %cutout=0.1
New PVSystem.PV_178 phases=1 bus1=G2100BE8900_N283564_sec_2.3 kV=0.24 kVA=5.76 irradiance=1 Pmpp=4.8 %cutin=0.1 %cutout=0.1
New PVSystem.PV_179 phases=1 bus1=G2100BI5900_N283697_sec_1.1 kV=0.24 kVA=2.16 irradiance=1 Pmpp=1.8 %cutin=0.1 %cutout=0.1
New PVSystem.PV_180 phases=1 bus1=G2100CI1500_N283687_sec_3.2 kV=0.24 kVA=8.2427 irradiance=1 Pmpp=6.8689 %cutin=0.1 %cutout=0.1
New PVSystem.PV_181 phases=1 bus1=G2100CK4000_N283780_sec_3.2 kV=0.24 kVA=6.36 irradiance=1 Pmpp=5.3 %cutin=0.1 %cutout=0.1
New PVSystem.PV_182 phases=1 bus1=G2100CK4100_N283759_sec_6.2 kV=0.24 kVA=6.72 irradiance=1 Pmpp=5.6 %cutin=0.1 %cutout=0.1
New PVSystem.PV_183 phases=1 bus1=G2100DG3700_N283614_sec_8.3 kV=0.24 kVA=4.92 irradiance=1 Pmpp=4.1 %cutin=0.1 %cutout=0.1
New PVSystem.PV_184 phases=1 bus1=G2100DJ0100_N283721_sec_1.2 kV=0.24 kVA=5.4 irradiance=1 Pmpp=4.5 %cutin=0.1 %cutout=0.1
New PVSystem.PV_185 phases=1 bus1=G2100DL5900_N283794_sec_1.3 kV=0.24 kVA=4.08 irradiance=1 Pmpp=3.4 %cutin=0.1 %cutout=0.1
New PVSystem.PV_186 phases=1 bus1=G2100DM6300_N283816_sec_4.3 kV=0.24 kVA=1.2153 irradiance=1 Pmpp=1.0127 %cutin=0.1 %cutout=0.1
New PVSystem.PV_187 phases=1 bus1=G2100DN4800_N283861_sec_38.3 kV=0.24 kVA=3.96 irradiance=1 Pmpp=3.3 %cutin=0.1 %cutout=0.1
New PVSystem.PV_188 phases=1 bus1=G2100DN4800_N283861_sec_57.3 kV=0.24 kVA=0.6 irradiance=1 Pmpp=0.5 %cutin=0.1 %cutout=0.1
New PVSystem.PV_189 phases=1 bus1=G2100DO7000_N283865_sec_7.3 kV=0.24 kVA=1.8 irradiance=1 Pmpp=1.5 %cutin=0.1 %cutout=0.1
New PVSystem.PV_190 phases=1 bus1=G2100EK1100_N292334_sec_3.2 kV=0.24 kVA=10.08 irradiance=1 Pmpp=8.4 %cutin=0.1 %cutout=0.1
New PVSystem.PV_191 phases=1 bus1=G2100EM2500_N292390_sec_13.2 kV=0.24 kVA=6.48 irradiance=1 Pmpp=5.4 %cutin=0.1 %cutout=0.1
New PVSystem.PV_192 phases=1 bus1=G2100EM6500_N292425_sec_2.3 kV=0.24 kVA=2.16 irradiance=1 Pmpp=1.8 %cutin=0.1 %cutout=0.1
New PVSystem.PV_193 phases=1 bus1=G2100EN2200_N292457_sec_24.3 kV=0.24 kVA=3.12 irradiance=1 Pmpp=2.6 %cutin=0.1 %cutout=0.1
New PVSystem.PV_194 phases=1 bus1=G2100EO2100_N292498_sec_10.3 kV=0.24 kVA=2.88 irradiance=1 Pmpp=2.4 %cutin=0.1 %cutout=0.1
New PVSystem.PV_195 phases=3 conn = delta bus1=G2100FL1200_N292405_sec_3.1.2.3 kV=0.48 kVA=3.24 irradiance=1 Pmpp=2.7 %cutin=0.1 %cutout=0.1
New PVSystem.PV_196 phases=1 bus1=G2100GH2300_N292309_sec_1.3 kV=0.24 kVA=10.92 irradiance=1 Pmpp=9.1 %cutin=0.1 %cutout=0.1
New PVSystem.PV_197 phases=1 bus1=G2100GM9700_N292423_sec_16.3 kV=0.24 kVA=4.8 irradiance=1 Pmpp=4 %cutin=0.1 %cutout=0.1
New PVSystem.PV_198 phases=1 bus1=G2100GM9700_N292423_sec_30.3 kV=0.24 kVA=1.8 irradiance=1 Pmpp=1.5 %cutin=0.1 %cutout=0.1
New PVSystem.PV_199 phases=1 bus1=G2100GN4300_N292461_sec_7.1 kV=0.24 kVA=5.28 irradiance=1 Pmpp=4.4 %cutin=0.1 %cutout=0.1
New PVSystem.PV_200 phases=1 bus1=G2100GN7300_N292464_sec_1.1 kV=0.24 kVA=3.72 irradiance=1 Pmpp=3.1 %cutin=0.1 %cutout=0.1
...
